Info: SIMULATION PARAMETERS:
Info: TIMESTEP               1
Info: NUMBER OF STEPS        0
Info: STEPS PER CYCLE        20
Info: PERIODIC CELL BASIS 1  80.347 0 0
Info: PERIODIC CELL BASIS 2  0 77.867 0
Info: PERIODIC CELL BASIS 3  0 0 83.752
Info: PERIODIC CELL CENTER   11.4551 10.6209 2.4264
Info: WRAPPING WATERS AROUND PERIODIC BOUNDARIES ON OUTPUT.
Info: WRAPPING ALL CLUSTERS AROUND PERIODIC BOUNDARIES ON OUTPUT.
Info: WRAPPING TO IMAGE NEAREST TO PERIODIC CELL CENTER.
Info: FIRST LDB TIMESTEP     100
Info: LAST LDB TIMESTEP     -1
Info: HOM BACKGROUND SCALING 1
Info: PME BACKGROUND SCALING 1
Info: MIN ATOMS PER PATCH    40
Info: VELOCITY FILE          s1.1.restart.vel
Info: CENTER OF MASS MOVING INITIALLY? NO
Info: DIELECTRIC             1
Info: EXCLUDE                SCALED ONE-FOUR
Info: 1-4 ELECTROSTATICS SCALED BY 1
Info: MODIFIED 1-4 VDW PARAMETERS WILL BE USED
Info: DCD FILENAME           s2.1.dcd
Info: DCD FREQUENCY          2500
Info: DCD FIRST STEP         2500
Info: DCD FILE WILL CONTAIN UNIT CELL DATA
Info: XST FILENAME           s2.1.xst
Info: XST FREQUENCY          2500
Info: NO VELOCITY DCD OUTPUT
Info: NO FORCE DCD OUTPUT
Info: OUTPUT FILENAME        s2.1
Info: BINARY OUTPUT FILES WILL BE USED
Info: RESTART FILENAME       s2.1.restart
Info: RESTART FREQUENCY      2500
Info: BINARY RESTART FILES WILL BE USED
Info: SWITCHING ACTIVE
Info: VDW FORCE SWITCHING ACTIVE
Info: SWITCHING ON           10
Info: SWITCHING OFF          12
Info: PAIRLIST DISTANCE      16
Info: PAIRLIST SHRINK RATE   0.01
Info: PAIRLIST GROW RATE     0.01
Info: PAIRLIST TRIGGER       0.3
Info: PAIRLISTS PER CYCLE    2
Info: PAIRLISTS ENABLED
Info: MARGIN                 3
Info: HYDROGEN GROUP CUTOFF  2.5
Info: PATCH DIMENSION        21.5
Info: ENERGY OUTPUT STEPS    250
Info: CROSSTERM ENERGY INCLUDED IN DIHEDRAL
Info: TIMING OUTPUT STEPS    2500
Info: PRESSURE OUTPUT STEPS  250
Info: HARMONIC CONSTRAINTS ACTIVE
Info: HARMONIC CONS EXP      10
Info: LANGEVIN DYNAMICS ACTIVE
Info: LANGEVIN TEMPERATURE   298
Info: LANGEVIN USING BBK INTEGRATOR
Info: LANGEVIN DAMPING COEFFICIENT IS 0.01 INVERSE PS
Info: LANGEVIN DYNAMICS NOT APPLIED TO HYDROGENS
Info: PARTICLE MESH EWALD (PME) ACTIVE
Info: PME TOLERANCE               1e-06
Info: PME EWALD COEFFICIENT       0.257952
Info: PME INTERPOLATION ORDER     6
Info: PME GRID DIMENSIONS         84 80 84
Info: PME MAXIMUM GRID SPACING    1
Info: PME RECIPROCAL SUM OFFLOADED TO GPU
Info: FULL ELECTROSTATIC EVALUATION FREQUENCY      1
Info: USING VERLET I (r-RESPA) MTS SCHEME.
Info: C1 SPLITTING OF LONG RANGE ELECTROSTATICS
Info: PLACING ATOMS IN PATCHES BY HYDROGEN GROUPS
Info: RIGID BONDS TO HYDROGEN : ALL
Info:         ERROR TOLERANCE : 1e-08
Info:          MAX ITERATIONS : 100
Info: RIGID WATER USING SETTLE ALGORITHM
Info: RANDOM NUMBER SEED     1619110891
Info: USE HYDROGEN BONDS?    NO
Info: COORDINATE PDB         ionized.pdb
Info: STRUCTURE FILE         ionized.hmr.psf
Info: PARAMETER file: CHARMM format!
Info: PARAMETERS             par_all22_prot.inp
Info: PARAMETERS             par_all36m_prot.prm
Info: USING ARITHMETIC MEAN TO COMBINE L-J SIGMA PARAMETERS
Info: BINARY COORDINATES     s1.1.restart.coor
Info: SUMMARY OF PARAMETERS:
Info: 277 BONDS
Info: 746 ANGLES
Info: 1192 DIHEDRAL
Info: 80 IMPROPER
Info: 12 CROSSTERM
Info: 149 VDW
Info: 1 VDW_PAIRS
Info: 0 NBTHOLE_PAIRS
Info: STRUCTURE SUMMARY:
Info: 49478 ATOMS
Info: 33845 BONDS
Info: 20220 ANGLES
Info: 6690 DIHEDRALS
Info: 466 IMPROPERS
Info: 154 CROSSTERMS
Info: 0 EXCLUSIONS
Info: 625 CONSTRAINTS
Info: 48220 RIGID BONDS
Info: 100214 DEGREES OF FREEDOM
Info: 16917 HYDROGEN GROUPS
Info: 4 ATOMS IN LARGEST HYDROGEN GROUP
Info: 16917 MIGRATION GROUPS
Info: 4 ATOMS IN LARGEST MIGRATION GROUP
Info: TOTAL MASS = 299945 amu
Info: TOTAL CHARGE = 1.61491e-06 e
Info: MASS DENSITY = 0.950568 g/cm^3
Info: ATOM DENSITY = 0.0944265 atoms/A^3
Info: ADDED 60647 IMPLICIT EXCLUSIONS
Info: NONBONDED TABLE R-SQUARED SPACING: 0.0625
Info: NONBONDED TABLE SIZE: 769 POINTS
Info: REMOVING COM VELOCITY 0.0483102 0.0577854 -0.0232214
Info: Updated CUDA force table with 4096 elements.
Info: Updated CUDA LJ table with 100 x 100 elements.
Info: Found 271 unique exclusion lists needing 832 bytes
TCL: Minimizing for 5000 steps
ETITLE: TS BOND ANGLE DIHED IMPRP ELECT VDW BOUNDARY MISC KINETIC TOTAL TEMP POTENTIAL TOTAL3 TEMPAVG PRESSURE GPRESSURE VOLUME PRESSAVG GPRESSAVG
ENERGY: 0 137.2490 370.2034 1427.5930 5.8605 -203889.1158 23155.8318 0.0000 0.0000 0.0000 -178792.3781 0.0000 -178792.3781 -178792.3781 0.0000 -10.1149 -45633.2112 523984.3344 -10.1149 -45633.2112
ENERGY: 1000 126.5723 376.3412 1356.5996 17.4676 -223636.2633 25150.7635 3.4494 0.0000 0.0000 -196605.0695 0.0000 -196605.0695 -196605.0695 0.0000 -31.8388 -25521.3890 523984.3344 -31.8388 -25521.3890
ENERGY: 2000 128.2559 381.1229 1358.9136 17.6260 -224041.5570 25371.7450 4.6724 0.0000 0.0000 -196779.2211 0.0000 -196779.2211 -196779.2211 0.0000 -40.1266 -25584.1802 523984.3344 -40.1266 -25584.1802
ENERGY: 3000 126.4756 380.5847 1357.5511 17.3445 -224174.4508 25449.0660 4.6219 0.0000 0.0000 -196838.8070 0.0000 -196838.8070 -196838.8070 0.0000 -39.4048 -25599.4335 523984.3344 -39.4048 -25599.4335
ENERGY: 4000 126.8899 380.7142 1358.0625 17.4606 -224226.4568 25474.2440 4.7276 0.0000 0.0000 -196864.3582 0.0000 -196864.3582 -196864.3582 0.0000 -40.1288 -25607.0259 523984.3344 -40.1288 -25607.0259
ENERGY: 5000 126.8362 380.6816 1358.1564 17.4422 -224237.3695 25478.7738 4.7472 0.0000 0.0000 -196870.7321 0.0000 -196870.7321 -196870.7321 0.0000 -40.2976 -25608.9059 523984.3344 -40.2976 -25608.9059
TCL: Running for 200000 steps
ETITLE: TS BOND ANGLE DIHED IMPRP ELECT VDW BOUNDARY MISC KINETIC TOTAL TEMP POTENTIAL TOTAL3 TEMPAVG PRESSURE GPRESSURE VOLUME PRESSAVG GPRESSAVG
ENERGY: 5000 126.8362 380.6816 1358.1564 17.4422 -224237.3695 25478.7738 4.7472 0.0000 29639.2668 -167231.4654 297.6661 -196870.7322 -167235.3614 297.6661 -3172.7435 -3169.2770 523984.3344 -3172.7435 -3169.2770
ENERGY: 8500 295.8296 863.7581 1466.7143 53.7469 -208386.8169 24289.1764 10.2628 0.0000 14710.6834 -166696.6455 147.7389 -181407.3289 -166686.4308 147.4930 -2008.5055 -2008.4790 523984.3344 -2075.9594 -2075.8068
ENERGY: 12250 308.9923 865.0311 1481.7043 50.0363 -208569.9887 24495.8411 10.1636 0.0000 15242.5945 -166115.6254 153.0809 -181358.2199 -166105.9383 152.1823 -1910.8355 -1911.6480 523984.3344 -1952.8031 -1952.7849
ENERGY: 15750 306.3853 887.3947 1468.3392 48.6940 -208379.2074 24429.9741 10.8120 0.0000 15606.8885 -165620.7196 156.7394 -181227.6080 -165610.1672 156.2577 -1878.3775 -1881.8429 523984.3344 -1859.4703 -1859.6013
ENERGY: 19500 321.5847 883.8804 1473.0430 60.7945 -208095.3253 24408.5665 12.3780 0.0000 15825.8537 -165109.2246 158.9385 -180935.0782 -165098.7578 159.4832 -1910.2263 -1904.6172 523984.3344 -1965.5334 -1965.5340
ENERGY: 23000 318.6609 911.7956 1471.9327 59.6720 -207892.8717 24333.9249 14.0540 0.0000 16147.5944 -164635.2371 162.1697 -180782.8316 -164624.6601 162.8057 -1931.4068 -1929.6533 523984.3344 -1904.0507 -1904.2101
