Info: SIMULATION PARAMETERS:
Info: TIMESTEP               1
Info: NUMBER OF STEPS        0
Info: STEPS PER CYCLE        20
Info: PERIODIC CELL BASIS 1  80.347 0 0
Info: PERIODIC CELL BASIS 2  0 77.867 0
Info: PERIODIC CELL BASIS 3  0 0 83.752
Info: PERIODIC CELL CENTER   11.4551 10.6209 2.4264
Info: WRAPPING WATERS AROUND PERIODIC BOUNDARIES ON OUTPUT.
Info: WRAPPING ALL CLUSTERS AROUND PERIODIC BOUNDARIES ON OUTPUT.
Info: WRAPPING TO IMAGE NEAREST TO PERIODIC CELL CENTER.
Info: FIRST LDB TIMESTEP     100
Info: LAST LDB TIMESTEP     -1
Info: HOM BACKGROUND SCALING 1
Info: PME BACKGROUND SCALING 1
Info: MIN ATOMS PER PATCH    40
Info: INITIAL TEMPERATURE    298
Info: CENTER OF MASS MOVING INITIALLY? NO
Info: DIELECTRIC             1
Info: EXCLUDE                SCALED ONE-FOUR
Info: 1-4 ELECTROSTATICS SCALED BY 1
Info: MODIFIED 1-4 VDW PARAMETERS WILL BE USED
Info: DCD FILENAME           s1.1.dcd
Info: DCD FREQUENCY          2500
Info: DCD FIRST STEP         2500
Info: DCD FILE WILL CONTAIN UNIT CELL DATA
Info: XST FILENAME           s1.1.xst
Info: XST FREQUENCY          2500
Info: NO VELOCITY DCD OUTPUT
Info: NO FORCE DCD OUTPUT
Info: OUTPUT FILENAME        s1.1
Info: BINARY OUTPUT FILES WILL BE USED
Info: RESTART FILENAME       s1.1.restart
Info: RESTART FREQUENCY      2500
Info: BINARY RESTART FILES WILL BE USED
Info: SWITCHING ACTIVE
Info: VDW FORCE SWITCHING ACTIVE
Info: SWITCHING ON           10
Info: SWITCHING OFF          12
Info: PAIRLIST DISTANCE      16
Info: PAIRLIST SHRINK RATE   0.01
Info: PAIRLIST GROW RATE     0.01
Info: PAIRLIST TRIGGER       0.3
Info: PAIRLISTS PER CYCLE    2
Info: PAIRLISTS ENABLED
Info: MARGIN                 3
Info: HYDROGEN GROUP CUTOFF  2.5
Info: PATCH DIMENSION        21.5
Info: ENERGY OUTPUT STEPS    250
Info: CROSSTERM ENERGY INCLUDED IN DIHEDRAL
Info: TIMING OUTPUT STEPS    2500
Info: PRESSURE OUTPUT STEPS  250
Info: FIXED ATOMS ACTIVE
Info: FORCES BETWEEN FIXED ATOMS ARE CALCULATED
Info: LANGEVIN DYNAMICS ACTIVE
Info: LANGEVIN TEMPERATURE   298
Info: LANGEVIN USING BBK INTEGRATOR
Info: LANGEVIN DAMPING COEFFICIENT IS 0.01 INVERSE PS
Info: LANGEVIN DYNAMICS NOT APPLIED TO HYDROGENS
Info: PARTICLE MESH EWALD (PME) ACTIVE
Info: PME TOLERANCE               1e-06
Info: PME EWALD COEFFICIENT       0.257952
Info: PME INTERPOLATION ORDER     6
Info: PME GRID DIMENSIONS         84 80 84
Info: PME MAXIMUM GRID SPACING    1
Info: PME RECIPROCAL SUM OFFLOADED TO GPU
Info: FULL ELECTROSTATIC EVALUATION FREQUENCY      1
Info: USING VERLET I (r-RESPA) MTS SCHEME.
Info: C1 SPLITTING OF LONG RANGE ELECTROSTATICS
Info: PLACING ATOMS IN PATCHES BY HYDROGEN GROUPS
Info: RIGID BONDS TO HYDROGEN : ALL
Info:         ERROR TOLERANCE : 1e-08
Info:          MAX ITERATIONS : 100
Info: RIGID WATER USING SETTLE ALGORITHM
Info: RANDOM NUMBER SEED     1619110811
Info: USE HYDROGEN BONDS?    NO
Info: COORDINATE PDB         ionized.pdb
Info: STRUCTURE FILE         ionized.hmr.psf
Info: PARAMETER file: CHARMM format!
Info: PARAMETERS             par_all22_prot.inp
Info: PARAMETERS             par_all36m_prot.prm
Info: USING ARITHMETIC MEAN TO COMBINE L-J SIGMA PARAMETERS
Info: SUMMARY OF PARAMETERS:
Info: 277 BONDS
Info: 746 ANGLES
Info: 1192 DIHEDRAL
Info: 80 IMPROPER
Info: 12 CROSSTERM
Info: 149 VDW
Info: 1 VDW_PAIRS
Info: 0 NBTHOLE_PAIRS
Info: STRUCTURE SUMMARY:
Info: 49478 ATOMS
Info: 33845 BONDS
Info: 20220 ANGLES
Info: 6690 DIHEDRALS
Info: 466 IMPROPERS
Info: 154 CROSSTERMS
Info: 0 EXCLUSIONS
Info: 2500 FIXED ATOMS
Info: 48220 RIGID BONDS
Info: 1243 RIGID BONDS BETWEEN FIXED ATOMS
Info: 93957 DEGREES OF FREEDOM
Info: 16917 HYDROGEN GROUPS
Info: 4 ATOMS IN LARGEST HYDROGEN GROUP
Info: 16917 MIGRATION GROUPS
Info: 4 ATOMS IN LARGEST MIGRATION GROUP
Info: 1257 HYDROGEN GROUPS WITH ALL ATOMS FIXED
Info: TOTAL MASS = 299945 amu
Info: TOTAL CHARGE = 1.61491e-06 e
Info: MASS DENSITY = 0.950568 g/cm^3
Info: ATOM DENSITY = 0.0944265 atoms/A^3
Info: ADDED 60647 IMPLICIT EXCLUSIONS
Info: NONBONDED TABLE R-SQUARED SPACING: 0.0625
Info: NONBONDED TABLE SIZE: 769 POINTS
Info: REMOVING COM VELOCITY 0.0558871 -0.0330697 0.0195222
Info: Updated CUDA force table with 4096 elements.
Info: Updated CUDA LJ table with 100 x 100 elements.
Info: Found 271 unique exclusion lists needing 832 bytes
TCL: Minimizing for 5000 steps
ETITLE: TS BOND ANGLE DIHED IMPRP ELECT VDW BOUNDARY MISC KINETIC TOTAL TEMP POTENTIAL TOTAL3 TEMPAVG PRESSURE GPRESSURE VOLUME PRESSAVG GPRESSAVG
ENERGY: 0 140.7507 371.9100 1427.5809 5.8377 -156847.4533 2366700.3944 0.0000 0.0000 0.0000 2211799.0203 0.0000 2211799.0203 2211799.0203 0.0000 -540.5480 697.4779 523984.3344 -540.5480 697.4779
ENERGY: 1000 140.7507 371.9100 1427.5809 5.8377 -215910.0974 23827.5886 0.0000 0.0000 0.0000 -190136.4296 0.0000 -190136.4296 -190136.4296 0.0000 -786.7615 -25405.8812 523984.3344 -786.7615 -25405.8812
ENERGY: 2000 140.7507 371.9100 1427.5809 5.8377 -218007.3889 24665.8640 0.0000 0.0000 0.0000 -191395.4457 0.0000 -191395.4457 -191395.4457 0.0000 -771.0805 -25650.7307 523984.3344 -771.0805 -25650.7307
ENERGY: 3000 140.7507 371.9100 1427.5809 5.8377 -218574.7476 24873.8309 0.0000 0.0000 0.0000 -191754.8375 0.0000 -191754.8375 -191754.8375 0.0000 -767.1771 -25717.8086 523984.3344 -767.1771 -25717.8086
ENERGY: 4000 140.7507 371.9100 1427.5809 5.8377 -218845.8515 24958.6530 0.0000 0.0000 0.0000 -191941.1193 0.0000 -191941.1193 -191941.1193 0.0000 -771.0598 -25756.9791 523984.3344 -771.0598 -25756.9791
ENERGY: 5000 140.7507 371.9100 1427.5809 5.8377 -219024.6753 25014.9852 0.0000 0.0000 0.0000 -192063.6109 0.0000 -192063.6109 -192063.6109 0.0000 -773.7460 -25783.2016 523984.3344 -773.7460 -25783.2016
TCL: Running for 5000 steps
ETITLE: TS BOND ANGLE DIHED IMPRP ELECT VDW BOUNDARY MISC KINETIC TOTAL TEMP POTENTIAL TOTAL3 TEMPAVG PRESSURE GPRESSURE VOLUME PRESSAVG GPRESSAVG
ENERGY: 5000 140.7507 371.9100 1427.5809 5.8377 -219024.6753 25014.9852 0.0000 0.0000 27830.5617 -164233.0492 298.1146 -192063.6109 -164237.0150 298.1146 -2867.9409 -2867.9409 523984.3344 -2867.9409 -2867.9409
ENERGY: 6000 140.7507 371.9100 1427.5809 5.8377 -202370.6538 22547.8870 0.0000 0.0000 13772.4711 -164104.2165 147.5275 -177876.6876 -164096.7147 146.7409 -2265.5765 -2265.7291 523984.3344 -2193.8576 -2193.8658
ENERGY: 7000 140.7507 371.9100 1427.5809 5.8377 -203285.3492 23064.5961 0.0000 0.0000 14305.3158 -163969.3580 153.2353 -178274.6738 -163961.8270 152.5999 -2019.3099 -2019.4306 523984.3344 -2122.0819 -2122.0725
ENERGY: 8000 140.7507 371.9100 1427.5809 5.8377 -203244.5687 22859.8343 0.0000 0.0000 14572.6990 -163865.9562 156.0994 -178438.6552 -163858.0222 156.1096 -2142.9488 -2142.7022 523984.3344 -2188.0451 -2188.0669
ENERGY: 9000 140.7507 371.9100 1427.5809 5.8377 -203910.8042 23260.7047 0.0000 0.0000 14948.6115 -163755.4088 160.1261 -178704.0203 -163746.9795 159.4594 -2043.9709 -2043.9737 523984.3344 -2048.5955 -2048.5898
ENERGY: 10000 140.7507 371.9100 1427.5809 5.8377 -203890.7253 23156.2849 0.0000 0.0000 15158.5148 -163629.8464 162.3745 -178788.3611 -163621.6326 161.4439 -2085.4408 -2085.6486 523984.3344 -2036.8161 -2036.8314
